PREDNISOLONE
     RDKit          3D

 54 57  0  0  1  0  0  0  0  0999 V2000
   91.7240  118.6150  115.4480 C   0  0  1  0  0  0  0  0  0  0  0  0
   92.9190  118.9610  114.4910 C   0  0  0  0  0  0  0  0  0  0  0  0
   93.3000  120.4670  114.3760 C   0  0  1  0  0  0  0  0  0  0  0  0
   93.2400  121.3190  115.7260 C   0  0  1  0  0  0  0  0  0  0  0  0
   92.4130  120.6110  116.8490 C   0  0  1  0  0  0  0  0  0  0  0  0
   91.9810  121.6330  117.9030 C   0  0  0  0  0  0  0  0  0  0  0  0
   93.2220  122.1910  118.6010 C   0  0  0  0  0  0  0  0  0  0  0  0
   94.2330  122.7330  117.6100 C   0  0  0  0  0  0  0  0  0  0  0  0
   94.9770  123.7880  117.9880 C   0  0  0  0  0  0  0  0  0  0  0  0
   95.9180  124.4060  117.0520 C   0  0  0  0  0  0  0  0  0  0  0  0
   96.6860  125.3280  117.4330 O   0  0  0  0  0  0  0  0  0  0  0  0
   95.8900  123.9980  115.6500 C   0  0  0  0  0  0  0  0  0  0  0  0
   95.1710  122.9340  115.2800 C   0  0  0  0  0  0  0  0  0  0  0  0
   94.5600  121.9640  116.3030 C   0  0  2  0  0  0  0  0  0  0  0  0
   91.2430  119.8840  116.1730 C   0  0  2  0  0  0  0  0  0  0  0  0
   89.9970  119.4530  116.9290 C   0  0  0  0  0  0  0  0  0  0  0  0
   89.3500  118.4120  115.9860 C   0  0  0  0  0  0  0  0  0  0  0  0
   90.3590  118.1620  114.8160 C   0  0  1  0  0  0  0  0  0  0  0  0
   92.7450  118.5410  113.4790 H   0  0  0  0  0  0  0  0  0  0  0  0
   93.8440  118.4450  114.8320 H   0  0  0  0  0  0  0  0  0  0  0  0
   92.5370  120.9140  113.6920 H   0  0  0  0  0  0  0  0  0  0  0  0
   92.6310  122.2090  115.4380 H   0  0  0  0  0  0  0  0  0  0  0  0
   93.0450  119.8780  117.3760 H   0  0  0  0  0  0  0  0  0  0  0  0
   91.3960  122.4580  117.4390 H   0  0  0  0  0  0  0  0  0  0  0  0
   91.3410  121.1460  118.6690 H   0  0  0  0  0  0  0  0  0  0  0  0
   92.8880  122.9860  119.3040 H   0  0  0  0  0  0  0  0  0  0  0  0
   93.7050  121.3920  119.2040 H   0  0  0  0  0  0  0  0  0  0  0  0
   94.8460  124.2400  118.9650 H   0  0  0  0  0  0  0  0  0  0  0  0
   96.3900  124.6010  114.9020 H   0  0  0  0  0  0  0  0  0  0  0  0
   95.1130  122.7430  114.2210 H   0  0  0  0  0  0  0  0  0  0  0  0
   90.8430  120.6110  115.4220 H   0  0  0  0  0  0  0  0  0  0  0  0
   90.2610  119.0000  117.9090 H   0  0  0  0  0  0  0  0  0  0  0  0
   89.3140  120.3150  117.1030 H   0  0  0  0  0  0  0  0  0  0  0  0
   89.1340  117.4910  116.5690 H   0  0  0  0  0  0  0  0  0  0  0  0
   88.3800  118.7920  115.5980 H   0  0  0  0  0  0  0  0  0  0  0  0
   92.2400  117.5070  116.4380 C   0  0  0  0  0  0  0  0  0  0  0  0
   93.2200  117.7500  116.8910 H   0  0  0  0  0  0  0  0  0  0  0  0
   92.4100  116.5580  115.8860 H   0  0  0  0  0  0  0  0  0  0  0  0
   91.5330  117.2900  117.2620 H   0  0  0  0  0  0  0  0  0  0  0  0
   95.6150  120.8880  116.6410 C   0  0  0  0  0  0  0  0  0  0  0  0
   96.4270  121.2970  117.2770 H   0  0  0  0  0  0  0  0  0  0  0  0
   95.1710  120.0210  117.1670 H   0  0  0  0  0  0  0  0  0  0  0  0
   96.0890  120.5070  115.7110 H   0  0  0  0  0  0  0  0  0  0  0  0
   94.5490  120.5570  113.7440 O   0  0  0  0  0  0  0  0  0  0  0  0
   94.4160  121.0470  112.8910 H   0  0  0  0  0  0  0  0  0  0  0  0
   89.9690  119.0240  113.7640 O   0  0  0  0  0  0  0  0  0  0  0  0
   89.4590  119.7860  114.1350 H   0  0  0  0  0  0  0  0  0  0  0  0
   90.3230  116.7040  114.3360 C   0  0  0  0  0  0  0  0  0  0  0  0
   90.1540  115.8000  115.1430 O   0  0  0  0  0  0  0  0  0  0  0  0
   90.4760  116.3550  112.8760 C   0  0  0  0  0  0  0  0  0  0  0  0
   91.3100  116.9510  112.4450 H   0  0  0  0  0  0  0  0  0  0  0  0
   90.7120  115.2720  112.7840 H   0  0  0  0  0  0  0  0  0  0  0  0
   89.2950  116.6320  112.1730 O   0  0  0  0  0  0  0  0  0  0  0  0
   88.7650  115.7930  112.1830 H   0  0  0  0  0  0  0  0  0  0  0  0
  1 15  1  0
  1 36  1  1
  2 20  1  0
  2  1  1  0
  3 21  1  6
  3  2  1  0
  3  4  1  0
  4 22  1  6
  4 14  1  0
  4  5  1  0
  5 23  1  1
  5  6  1  0
  6  7  1  0
  6 25  1  0
  7 27  1  0
  7 26  1  0
  8  9  2  0
  8  7  1  0
  9 28  1  0
 10 11  2  0
 10  9  1  0
 12 10  1  0
 13 12  2  0
 13 14  1  0
 14 40  1  1
 14  8  1  0
 15 31  1  6
 15  5  1  0
 15 16  1  0
 16 33  1  0
 16 32  1  0
 17 34  1  0
 17 16  1  0
 18 46  1  6
 18  1  1  0
 18 17  1  0
 19  2  1  0
 24  6  1  0
 29 12  1  0
 30 13  1  0
 35 17  1  0
 36 37  1  0
 36 39  1  0
 38 36  1  0
 40 42  1  0
 40 41  1  0
 43 40  1  0
 44  3  1  0
 45 44  1  0
 46 47  1  0
 48 18  1  0
 48 49  2  0
 50 48  1  0
 51 50  1  0
 52 50  1  0
 53 54  1  0
 53 50  1  0
M  END
