obj01
  DSViewer          3D                             0

 56 59  0  0  0  0  0  0  0  0999 V2000
   94.9890  124.0590  116.4930 C   0  0
   94.8740  127.4540  117.3490 O   0  0
   95.7070  125.2450  117.1250 C   0  0
   94.4370  121.4280  115.7220 O   0  0
   94.6900  126.2670  117.5520 C   0  0
   90.0630  119.8990  113.8030 O   0  0
   93.4720  125.7980  118.2220 C   0  0
   90.8610  117.5840  116.2800 O   0  0
   93.1870  124.4930  118.2350 C   0  0
   90.5600  116.2930  113.7270 O   0  0
   92.1350  123.9520  119.1630 C   0  0
   91.1180  123.1580  118.3420 C   0  0
   91.7720  122.2360  117.3190 C   0  0  2  0  0  0
   92.7540  122.9880  116.4410 C   0  0  1  0  0  0
   93.8540  123.4950  117.3400 C   0  0  1  0  0  0
   93.3170  122.1820  115.2660 C   0  0  2  0  0  0
   92.3250  121.2410  114.5760 C   0  0
   91.5080  120.5310  115.6270 C   0  0  1  0  0  0
   90.7700  121.5960  116.3880 C   0  0  1  0  0  0
   89.5670  120.9190  117.0170 C   0  0
   89.2450  119.7640  116.0720 C   0  0
   90.4360  119.5810  115.1420 C   0  0  1  0  0  0
   92.4540  119.7940  116.5550 C   0  0
   94.3100  122.3690  118.2490 C   0  0
   90.8830  118.1570  115.2110 C   0  0
   91.3570  117.4560  113.9670 C   0  0
   94.5757  124.3793  115.5366 H   0  0
   95.7185  123.2663  116.3269 H   0  0
   96.2724  124.9081  117.9939 H   0  0
   96.3871  125.6890  116.3981 H   0  0
   95.1723  122.0807  116.0905 H   0  0
   89.6930  120.8810  113.7660 H   0  0
   92.8037  126.5101  118.7062 H   0  0
   90.6404  115.6383  114.5440 H   0  0
   92.5990  123.2993  119.9024 H   0  0
   91.6336  124.7768  119.6694 H   0  0
   90.5184  122.5530  119.0221 H   0  0
   90.4725  123.8604  117.8146 H   0  0
   92.3085  121.4494  117.8496 H   0  0
   92.2355  123.8545  116.0305 H   0  0
   93.6760  122.8906  114.5196 H   0  0
   91.6648  121.8177  113.9281 H   0  0
   92.8701  120.5085  113.9807 H   0  0
   90.4180  122.3489  115.6827 H   0  0
   89.8104  120.5467  118.0121 H   0  0
   88.7262  121.6096  117.0825 H   0  0
   89.0777  118.8517  116.6446 H   0  0
   88.3529  119.9977  115.4909 H   0  0
   91.8799  119.2744  117.3221 H   0  0
   93.1290  120.5073  117.0279 H   0  0
   93.0341  119.0698  115.9830 H   0  0
   93.4627  122.0041  118.8294 H   0  0
   95.0815  122.7372  118.9254 H   0  0
   94.7139  121.5556  117.6461 H   0  0
   92.3983  117.1599  114.0942 H   0  0
   91.2725  118.1330  113.1169 H   0  0
  1  3  1  0  0  0
  1 15  1  0  0  0
  2  5  2  0  0  0
  3  5  1  0  0  0
  4 16  1  0  0  0
  5  7  1  0  0  0
  6 22  1  0  0  0
  7  9  2  0  0  0
  8 25  2  0  0  0
  9 11  1  0  0  0
  9 15  1  0  0  0
 10 26  1  0  0  0
 11 12  1  0  0  0
 12 13  1  0  0  0
 13 14  1  0  0  0
 13 19  1  0  0  0
 14 15  1  0  0  0
 14 16  1  0  0  0
 15 24  1  0  0  0
 16 17  1  0  0  0
 17 18  1  0  0  0
 18 19  1  0  0  0
 18 22  1  0  0  0
 18 23  1  0  0  0
 19 20  1  0  0  0
 20 21  1  0  0  0
 21 22  1  0  0  0
 22 25  1  0  0  0
 25 26  1  0  0  0
  1 27  1  0  0  0
  1 28  1  0  0  0
  3 29  1  0  0  0
  3 30  1  0  0  0
  4 31  1  0  0  0
  6 32  1  0  0  0
  7 33  1  0  0  0
 10 34  1  0  0  0
 11 35  1  0  0  0
 11 36  1  0  0  0
 12 37  1  0  0  0
 12 38  1  0  0  0
 13 39  1  0  0  0
 14 40  1  0  0  0
 16 41  1  0  0  0
 17 42  1  0  0  0
 17 43  1  0  0  0
 19 44  1  0  0  0
 20 45  1  0  0  0
 20 46  1  0  0  0
 21 47  1  0  0  0
 21 48  1  0  0  0
 23 49  1  0  0  0
 23 50  1  0  0  0
 23 51  1  0  0  0
 24 52  1  0  0  0
 24 53  1  0  0  0
 24 54  1  0  0  0
 26 55  1  0  0  0
 26 56  1  0  0  0
M  END
$$$$
